<?xml version="1.0" encoding="UTF-8"?>
<routes xmlns:xsi="http://www.w3.org/2001/XMLSchema-instance" xsi:noNamespaceSchemaLocation="http://sumo.dlr.de/xsd/routes_file.xsd">
    <routeDistribution id="routedist1">
        <route id="route0" color="1,0,1" edges="0/0to0/1 0/1to0/2 0/2to1/2 1/2to2/2" probability="0.1"/>
        <route id="route1" color="0,1,0" edges="0/0to0/1 0/1to1/1 1/1to2/1 2/1to2/2" probability="0.3"/>
		<route id="route2" color="0,0,1" edges="0/0to1/0 1/0to1/1 1/1to1/2 1/2to2/2" probability="0.1"/>
		<route id="route2" color="0,0,1" edges="0/0to0/1 0/1to1/1 1/1to1/0 1/0to2/0 2/0to2/1 2/1to2/2" probability="0.3"/>
		<route id="route2" color="0,0,1" edges="0/0to1/0 1/0to1/1 1/1to0/1 0/1to0/2 0/2to1/2 1/2to2/2" probability="0.1"/>
		<route id="route2" color="0,0,1" edges="0/0to1/0 1/0to2/0 2/0to2/1 2/1to1/1 1/1to0/1 0/1to0/2 0/2to1/2 1/2to2/2" probability="0.1"/>
    </routeDistribution>
	<vType id="normal car" vClass="passenger" maxSpeed="40" speedFactor="0.9" speedDev="0.2" sigma="0.5"/>
	<flow id="normal" type="normal car" number="15000" route="routedist1"/>	
</routes>