<?xml version="1.0" encoding="UTF-8"?>
<routes xmlns:xsi="http://www.w3.org/2001/XMLSchema-instance" xsi:noNamespaceSchemaLocation="http://sumo.dlr.de/xsd/routes_file.xsd">
    <routeDistribution id="routedist1">
		<route id="route0" color="0,0,1" edges="0/0to1/0 1/0to2/0 2/0to2/1 2/1to3/1 3/1to3/2 3/2to3/3" probability="5"/>
		<route id="route1" color="0,1,0" edges="0/0to0/1 0/1to1/1 1/1to1/2 1/2to2/2 2/2to2/3 2/3to3/3" probability="5"/>
		<route id="route2" color="0,1,1" edges="0/0to1/0 1/0to1/1 1/1to0/1 0/1to0/2 0/2to1/2 1/2to1/3 1/3to2/3 2/3to3/3" probability="3"/>
		<route id="route3" color="1,0,0" edges="0/0to0/1 0/1to1/1 1/1to2/1 2/1to2/2 2/2to1/2 1/2to1/3 1/3to2/3 2/3to3/3" probability="3"/>
        <route id="route4" color="1,0,1" edges="0/0to1/0 1/0to2/0 2/0to2/1 2/1to2/2 2/2to1/2 1/2to0/2 0/2to0/3 0/3to1/3 1/3to2/3 2/3to3/3" probability="2"/>
        <route id="route5" color="1,1,0" edges="0/0to1/0 1/0to1/1 1/1to2/1 2/1to2/0 2/0to3/0 3/0to3/1 3/1to3/2 3/2to2/2 2/2to2/3 2/3to3/3" probability="2"/>
		<route id="route6" color="0.5,0.5,0.5" edges="0/0to1/0 1/0to2/0 2/0to2/1 2/1to1/1 1/1to0/1 0/1to0/2 0/2to1/2 1/2to1/3 1/3to2/3 2/3to2/2 2/2to3/2 3/2to3/3" probability="1.5"/>
		<route id="route7" color="1,0,0.8" edges="0/0to0/1 0/1to1/1 1/1to2/1 2/1to3/1 3/1to3/2 3/2to2/2 2/2to1/2 1/2to0/2 0/2to0/3 0/3to1/3 1/3to2/3 2/3to3/3" probability="1.5"/>
		<route id="route8" color="0.2,0,1" edges="0/0to0/1 0/1to1/1 1/1to1/2 1/2to0/2 0/2to0/3 0/3to1/3 1/3to2/3 2/3to2/2 2/2to2/1 2/1to2/0 2/0to3/0 3/0to3/1 3/1to3/2 3/2to3/3" probability="1"/>
		<route id="route9" color="0.5,0.5,1" edges="0/0to0/1 0/1to0/2 0/2to1/2 1/2to1/3 1/3to2/3 2/3to2/2 2/2to2/1 2/1to1/1 1/1to1/0 1/0to2/0 2/0to3/0 3/0to3/1 3/1to3/2 3/2to3/3" probability="1"/>
    </routeDistribution>
	<vType id="normal car" vClass="passenger" maxSpeed="40" speedFactor="0.9" speedDev="0.2" sigma="0.5"/>
	<flow id="normal" type="normal car" number="20000" route="routedist1"/>	
</routes>