<additionals>
	<additional>
		<tlLogic id="0/1" type="static" programID="off" offset="0"/>
		<tlLogic id="0/2" type="static" programID="off" offset="0"/>
		<tlLogic id="1/0" type="static" programID="off" offset="0"/>
		<tlLogic id="1/1" type="static" programID="off" offset="0"/>
		<tlLogic id="1/2" type="static" programID="off" offset="0"/>
		<tlLogic id="1/3" type="static" programID="off" offset="0"/>
		<tlLogic id="2/0" type="static" programID="off" offset="0"/>
		<tlLogic id="2/1" type="static" programID="off" offset="0"/>
		<tlLogic id="2/2" type="static" programID="off" offset="0"/>
		<tlLogic id="2/3" type="static" programID="off" offset="0"/>
		<tlLogic id="3/1" type="static" programID="off" offset="0"/>
		<tlLogic id="3/2" type="static" programID="off" offset="0"/>
	</additional>
	<additional>
		<!-- Traffic Zones -->
		<taz id="origin" edges="0/0to1/0 0/0to0/1"/>
		<taz id="destination" edges="2/3to3/3 3/2to3/3"/>
	</additional>
</additionals>

