<?xml version="1.0" encoding="UTF-8"?>
<routes xmlns:xsi="http://www.w3.org/2001/XMLSchema-instance" xsi:noNamespaceSchemaLocation="http://sumo.dlr.de/xsd/routes_file.xsd">
    <routeDistribution id="routedist1">
			<route id="route0" color="0.61,0.78,0.37" edges="0/0to1/0 1/0to2/0 2/0to3/0 3/0to3/1 3/1to3/2 3/2to4/2 4/2to4/3 4/3to4/4" probability="0.2"/>
			<route id="route1" color="0.81,0.22,0.27" edges="0/0to0/1 0/1to1/1 1/1to1/2 1/2to2/2 2/2to2/3 2/3to3/3 3/3to3/4 3/4to4/4" probability="0.7"/>
			<route id="route2" color="0.64,0.45,0.91" edges="0/0to0/1 0/1to0/2 0/2to1/2 1/2to2/2 2/2to2/3 2/3to3/3 3/3to3/4 3/4to4/4" probability="1.0"/>
			<route id="route3" color="0.16,0.35,0.22" edges="0/0to0/1 0/1to1/1 1/1to2/1 2/1to2/2 2/2to2/3 2/3to3/3 3/3to3/4 3/4to4/4" probability="0.4"/>
			<route id="route4" color="0.1,0.71,0.61" edges="0/0to0/1 0/1to0/2 0/2to1/2 1/2to2/2 2/2to2/3 2/3to3/3 3/3to4/3 4/3to4/4" probability="0.6"/>
			<route id="route5" color="0.03,0.79,0.39" edges="0/0to1/0 1/0to1/1 1/1to1/2 1/2to2/2 2/2to3/2 3/2to3/3 3/3to4/3 4/3to4/4" probability="0.0"/>
    </routeDistribution>
	<vType id="normal car" vClass="passenger" maxSpeed="40" speedFactor="0.9" speedDev="0.2" sigma="0.5"/>
	<flow id="normal" type="normal car" number="30000" route="routedist1"/>
</routes>
