<?xml version="1.0" encoding="UTF-8"?>

<!-- generated on 08/31/17 22:10:00 by SUMO duarouter Version 0.30.0
<?xml version="1.0" encoding="UTF-8"?>

<configuration xmlns:xsi="http://www.w3.org/2001/XMLSchema-instance" xsi:noNamespaceSchemaLocation="http://sumo.dlr.de/xsd/duarouterConfiguration.xsd">

    <output>
        <output-file value="grid.rou.xml"/>
    </output>

    <processing>
        <with-taz value="true"/>
    </processing>

</configuration>
-->

<routes xmlns:xsi="http://www.w3.org/2001/XMLSchema-instance" xsi:noNamespaceSchemaLocation="http://sumo.dlr.de/xsd/routes_file.xsd">
    <routeDistribution id="routedist1">
        <route id="route0" color="1,0,1" edges="0/0to1/0 1/0to1/1 1/1to1/2 1/2to2/2" probability="0.7"/>
        <route id="route1" color="0,1,0" edges="0/0to0/1 0/1to1/1 1/1to2/1 2/1to2/2" probability="0.15"/>
		<route id="route2" color="0,0,1" edges="0/0to0/1 0/1to0/2 0/2to1/2 1/2to2/2" probability="0.15"/>
    </routeDistribution>
	<vType id="normal car" vClass="passenger" maxSpeed="40" speedFactor="0.9" speedDev="0.2" sigma="0.5"/>
	<flow id="normal" type="normal car" begin="0" number="13000" route="routedist1"/>	
</routes>