<?xml version="1.0" encoding="UTF-8"?>

<!-- generated on 08/31/17 22:10:00 by SUMO duarouter Version 0.30.0
<?xml version="1.0" encoding="UTF-8"?>

<configuration xmlns:xsi="http://www.w3.org/2001/XMLSchema-instance" xsi:noNamespaceSchemaLocation="http://sumo.dlr.de/xsd/duarouterConfiguration.xsd">

    <output>
        <output-file value="grid.rou.xml"/>
    </output>

    <processing>
        <with-taz value="true"/>
    </processing>

</configuration>
-->

<routes xmlns:xsi="http://www.w3.org/2001/XMLSchema-instance" xsi:noNamespaceSchemaLocation="http://sumo.dlr.de/xsd/routes_file.xsd">
	<vType id="normal car" vClass="passenger" maxSpeed="40" speedFactor="0.9" speedDev="0.2" sigma="0.5" color="1,0,1"/>
	<flow id="normal" type="normal car" begin="0" probability="0.95" fromTaz="origin" toTaz="destination"/>	
</routes>